data original/sourcebus_22000.trafo_75616874_75616874/Loads.dss
New Load.75620663_nmi_elem_75620663 bus1=3104403.2 kV=0.23094010767585033 Vminpu=0.7 Vmaxpu=1.3 model=1 kW=0.0 kvar=0.0 Phases=1
New Load.75622481_nmi_elem_75622481 bus1=3101942.1.2.3 kV=0.4 Vminpu=0.7 Vmaxpu=1.3 model=1 kW=0.0 kvar=0.0 Phases=3
New Load.NMI_elem_75617590 bus1=3104403.2 kV=0.23094010767585033 Vminpu=0.7 Vmaxpu=1.3 model=1 kW=1.192593681394376 kvar=0.2421664756245183 Phases=1
New Load.NMI_elem_75619030 bus1=3106494.2 kV=0.23094010767585033 Vminpu=0.7 Vmaxpu=1.3 model=1 kW=1.3468841965158895 kvar=0.2734965009736234 Phases=1
New Load.NMI_elem_75619408 bus1=3101942.1.2.3 kV=0.4 Vminpu=0.7 Vmaxpu=1.3 model=1 kW=4.209219100982631 kvar=0.8547183929606004 Phases=3
New Load.NMI_elem_75619554 bus1=3106699.2 kV=0.23094010767585033 Vminpu=0.7 Vmaxpu=1.3 model=1 kW=1.5987809851390542 kvar=0.3246463254894501 Phases=1
